/*--------------------------------*- C++ -*----------------------------------*\
| =========                 |                                                 |
| \\      /  F ield         | OpenFOAM: The Open Source CFD Toolbox           |
|  \\    /   O peration     | Version:  2206                                  |
|   \\  /    A nd           | Website:  www.openfoam.com                      |
|    \\/     M anipulation  |                                                 |
\*---------------------------------------------------------------------------*/
FoamFile
{
    version     2.0;
    format      ascii;
    arch        "LSB;label=32;scalar=64";
    class       featureEdgeMesh;
    location    "constant/triSurface";
    object      DTCShip.eMesh;
}
// * * * * * * * * * * * * * * * * * * * * * * * * * * * * * * * * * * * * * //


// points:

927
(
(-0.113503 -0.429241 0.57232201)
(-0.113503 0.429241 0.57232201)
(5.9772801 0 0.274777)
(-0.083152302 -0.429241 0.57232201)
(5.14149 0.428444 0.57232201)
(5.1643 0.427811 0.57232201)
(-0.113503 -0.39229301 0.57232201)
(5.27349 -0.422631 0.57232201)
(5.2432098 -0.42450801 0.57232201)
(5.2428398 0.424528 0.57232201)
(5.2732401 0.42264801 0.57232201)
(5.3053098 0.42022201 0.57232201)
(5.3054399 -0.42021099 0.57232201)
(1.4038301 -0.429241 0.57232201)
(1.3715 -0.429241 0.57232201)
(-0.113503 0.429241 0.54877597)
(1.97269 -0.429241 0.57232201)
(1.94179 -0.429241 0.57232201)
(2.7068 -0.429241 0.57232201)
(2.67308 -0.429241 0.57232201)
(-0.0040890402 -0.429241 0.57232201)
(-0.042898599 -0.429241 0.57232201)
(0.137895 -0.429241 0.57232201)
(0.104246 -0.429241 0.57232201)
(0.170379 -0.429241 0.57232201)
(0.441185 -0.429241 0.57232201)
(0.407148 -0.429241 0.57232201)
(2.6032901 -0.429241 0.57232201)
(2.5692501 -0.429241 0.57232201)
(0.40730301 0.429241 0.57232201)
(0.441578 0.429241 0.57232201)
(2.7404599 -0.429241 0.57232201)
(5.9479098 0.25952399 0.57232201)
(5.96031 0.25193101 0.57232201)
(1.624 0.429241 0.57232201)
(1.65766 0.429241 0.57232201)
(-0.0156781 0.429241 0.57232201)
(0.019021001 0.429241 0.57232201)
(0.130538 0.429241 0.57232201)
(0.167519 0.429241 0.57232201)
(-0.113503 0.026365999 0.25826201)
(-0.113503 0.059556 0.25927201)
(-0.113503 0.091743201 0.26035801)
(1.27249 -0.429241 0.57232201)
(1.3045599 -0.429241 0.57232201)
(0.64288902 -0.429241 0.57232201)
(0.67293102 -0.429241 0.57232201)
(1.77632 -0.429241 0.57232201)
(1.80916 -0.429241 0.57232201)
(5.71453 -0.36278099 0.57232201)
(5.7030501 -0.364438 0.57232201)
(5.7031698 0.36441901 0.57232201)
(5.7147899 0.36274299 0.57232201)
(5.7432799 0.35477901 0.57232201)
(5.73487 0.35758299 0.57232201)
(5.7344799 -0.35771301 0.57232201)
(5.7251401 -0.36076799 0.57232201)
(1.3378299 -0.429241 0.57232201)
(0.51206797 0.429241 0.57232201)
(0.54670697 0.429241 0.57232201)
(2.9315701 -0.429241 0.57232201)
(2.8989501 -0.429241 0.57232201)
(5.7760801 -0.34334299 0.57232201)
(5.7705898 -0.345332 0.57232201)
(3.55493 -0.429241 0.57232201)
(3.5881701 -0.429241 0.57232201)
(3.14838 -0.429241 0.57232201)
(3.11252 -0.429241 0.57232201)
(4.9869599 -0.429241 0.57232201)
(5.0118599 -0.429241 0.57232201)
(0.58034998 0.429241 0.57232201)
(6.1620402 0.00527274 0.57232201)
(6.1620898 0 0.57232201)
(3.0752499 -0.429241 0.57232201)
(3.4895799 -0.429241 0.57232201)
(3.45873 -0.429241 0.57232201)
(4.7713599 -0.429241 0.57232201)
(4.7355099 -0.429241 0.57232201)
(3.1509399 0.429241 0.57232201)
(3.11727 0.429241 0.57232201)
(1.59156 -0.429241 0.57232201)
(1.55818 -0.429241 0.57232201)
(3.5216501 -0.429241 0.57232201)
(6.1465201 -0.072762698 0.57232201)
(6.1496201 -0.0650023 0.57232201)
(3.65113 -0.429241 0.57232201)
(3.6202199 -0.429241 0.57232201)
(0.30758801 0 0.021491)
(0.30352601 0 0.0225574)
(3.68118 -0.429241 0.57232201)
(3.74208 -0.429241 0.57232201)
(3.71122 -0.429241 0.57232201)
(4.7355099 0.429241 0.57232201)
(4.7718201 0.429241 0.57232201)
(4.83952 -0.429241 0.57232201)
(4.8058701 -0.429241 0.57232201)
(3.7741399 -0.429241 0.57232201)
(4.8403602 0.429241 0.57232201)
(4.8727198 0.429241 0.57232201)
(6.03157 0 0.0508966)
(6.0349202 0 0.0523424)
(6.02069 0 0.046349999)
(6.0244598 0 0.047900502)
(5.8722301 0 0.00739625)
(5.8681898 0 0.0068244701)
(6.0281301 0 0.049424201)
(0.175965 0 0.069857001)
(0.179517 0 0.068295397)
(0.25549999 0 0.037571099)
(0.25906199 0 0.036316399)
(3.84109 -0.429241 0.57232201)
(3.80742 -0.429241 0.57232201)
(3.0121 0.429241 0.57232201)
(3.0483601 0.429241 0.57232201)
(0.18293799 0 0.066795699)
(0.186471 0 0.065251298)
(5.7997599 -0.334317 0.57232201)
(5.7953801 -0.336041 0.57232201)
(3.3529301 0.429241 0.57232201)
(3.3192699 0.429241 0.57232201)
(2.8670299 -0.429241 0.57232201)
(0.19013 0 0.063657701)
(0.19388101 0 0.062032599)
(0.19778401 0 0.060350802)
(0.24416301 0 0.041679502)
(0.248053 0 0.040249899)
(0.25181299 0 0.038886901)
(0.205438 0 0.057087399)
(0.20168 0 0.058687702)
(0.24014799 0 0.0431761)
(0.20913 0 0.055541001)
(0.212907 0 0.0539595)
(0.25338501 0 0.167089)
(0.25171399 0 0.170544)
(0.216777 0 0.052374199)
(0.236 0 0.044750199)
(0.23200899 0 0.046291601)
(3.8747499 -0.429241 0.57232201)
(4.4639101 0.429241 0.57232201)
(4.4302402 0.429241 0.57232201)
(3.9416699 -0.429241 0.57232201)
(3.9084201 -0.429241 0.57232201)
(1.89333 0.429241 0.57232201)
(1.92699 0.429241 0.57232201)
(4.9604301 -0.429241 0.57232201)
(-0.113503 -0.429241 0.54818201)
(-0.113503 -0.429241 0.52149498)
(0.64768201 0.429241 0.57232201)
(0.68134803 0.429241 0.57232201)
(0.91701001 0.429241 0.57232201)
(0.95067602 0.429241 0.57232201)
(0.239015 0.429241 0.57232201)
(0.27385899 0.429241 0.57232201)
(2.09532 0.429241 0.57232201)
(2.1289899 0.429241 0.57232201)
(1.8428299 -0.429241 0.57232201)
(4.4092398 -0.429241 0.57232201)
(4.3786302 -0.429241 0.57232201)
(3.0009899 -0.429241 0.57232201)
(2.9656401 -0.429241 0.57232201)
(4.0346699 -0.429241 0.57232201)
(4.0046201 -0.429241 0.57232201)
(3.9737201 -0.429241 0.57232201)
(5.2148099 0.42593199 0.57232201)
(4.9032698 -0.429241 0.57232201)
(4.9324598 -0.429241 0.57232201)
(4.0955701 -0.429241 0.57232201)
(4.0647202 -0.429241 0.57232201)
(5.03652 0.429241 0.57232201)
(5.0130401 0.429241 0.57232201)
(6.15766 -0.039212301 0.57232201)
(6.1595001 -0.0303129 0.57232201)
(5.9732199 -0.24387001 0.57232201)
(5.9857798 -0.235881 0.57232201)
(5.9977002 -0.228139 0.57232201)
(6.00879 -0.22075 0.57232201)
(6.1082702 -0.134022 0.57232201)
(6.11555 -0.124399 0.57232201)
(5.9478898 -0.25953999 0.57232201)
(5.96031 -0.25192899 0.57232201)
(5.9249101 -0.27323699 0.57232201)
(5.9359598 -0.266729 0.57232201)
(5.8305998 -0.32141101 0.57232201)
(5.8337102 -0.32002899 0.57232201)
(2.8751299 0.429241 0.57232201)
(2.84146 0.429241 0.57232201)
(5.8113399 -0.329622 0.57232201)
(5.8147101 -0.32822001 0.57232201)
(-0.113503 0.160248 0.57232201)
(-0.113503 0.126582 0.57232201)
(-0.113503 0.396707 0.57232201)
(5.78123 -0.34144399 0.57232201)
(5.78614 -0.33959901 0.57232201)
(5.7908602 -0.33780101 0.57232201)
(0.47658101 0.429241 0.57232201)
(5.7646499 -0.34744301 0.57232201)
(4.9035902 0.429241 0.57232201)
(-0.085681804 0.429241 0.57232201)
(-0.050278202 0.429241 0.57232201)
(2.0027399 -0.429241 0.57232201)
(0.47658101 -0.429241 0.57232201)
(3.5885899 0.429241 0.57232201)
(3.55493 0.429241 0.57232201)
(1.45567 0.429241 0.57232201)
(1.4220001 0.429241 0.57232201)
(5.8477702 0 0.0043474101)
(5.8516898 0 0.0047729802)
(-0.113503 0.429241 0.52227902)
(-0.113503 0.092881799 0.57232201)
(-0.113503 0.059609901 0.57232201)
(0.054911401 0.429241 0.57232201)
(0.092247501 0.429241 0.57232201)
(-0.113503 -0.028570499 0.57232201)
(-0.113503 -0.057759698 0.57232201)
(-0.113503 0 0.57232201)
(-0.113503 0.026980899 0.57232201)
(1.71387 -0.429241 0.57232201)
(1.68404 -0.429241 0.57232201)
(5.54849 -0.38726199 0.57232201)
(5.5714002 -0.38349101 0.57232201)
(5.64675 -0.37257001 0.57232201)
(5.6623998 -0.370307 0.57232201)
(5.6299801 -0.37499899 0.57232201)
(5.59234 -0.380454 0.57232201)
(5.6119399 -0.37761101 0.57232201)
(2.2973199 0.429241 0.57232201)
(2.2636499 0.429241 0.57232201)
(4.1276398 -0.429241 0.57232201)
(1.62331 -0.429241 0.57232201)
(1.65429 -0.429241 0.57232201)
(5.2150002 -0.425924 0.57232201)
(5.18889 -0.426994 0.57232201)
(5.5241899 -0.39154401 0.57232201)
(5.37392 -0.41344401 0.57232201)
(5.40732 -0.409412 0.57232201)
(5.4978399 -0.39603299 0.57232201)
(0.54635501 -0.429241 0.57232201)
(0.57955498 -0.429241 0.57232201)
(-0.113503 -0.259644 0.57232201)
(-0.113503 -0.29005101 0.57232201)
(1.18155 -0.429241 0.57232201)
(1.15064 -0.429241 0.57232201)
(1.2115901 -0.429241 0.57232201)
(1.52643 -0.429241 0.57232201)
(1.49541 -0.429241 0.57232201)
(1.08534 -0.429241 0.57232201)
(1.05206 -0.429241 0.57232201)
(6.0721002 0 0.070303999)
(6.0757999 0 0.072326697)
(5.4394698 -0.40507799 0.57232201)
(5.4696498 -0.400585 0.57232201)
(2.0327899 -0.429241 0.57232201)
(2.4140401 -0.429241 0.57232201)
(2.38253 -0.429241 0.57232201)
(-0.113503 -0.0707146 0.25963399)
(-0.113503 -0.1034 0.260784)
(-0.113503 -0.134928 0.26201701)
(0.239015 -0.429241 0.57232201)
(0.204164 -0.429241 0.57232201)
(3.39956 -0.429241 0.57232201)
(3.3697801 -0.429241 0.57232201)
(3.4286799 -0.429241 0.57232201)
(3.3397501 -0.429241 0.57232201)
(3.3108499 -0.429241 0.57232201)
(2.63819 -0.429241 0.57232201)
(4.19416 -0.429241 0.57232201)
(4.1609201 -0.429241 0.57232201)
(1.38833 0.429241 0.57232201)
(2.36465 0.429241 0.57232201)
(2.3309801 0.429241 0.57232201)
(-0.113503 0.193914 0.57232201)
(1.35467 0.429241 0.57232201)
(0.20363399 0.429241 0.57232201)
(5.1887898 0.426999 0.57232201)
(5.3391099 -0.41714901 0.57232201)
(-0.113503 0.12163 0.261482)
(-0.113503 0.150372 0.262676)
(6.1240501 0 0.107382)
(6.12676 0 0.11008)
(-0.113503 -0.14578199 0.57232201)
(-0.113503 -0.117421 0.57232201)
(1.69133 0.429241 0.57232201)
(-0.113503 -0.17456 0.57232201)
(-0.113503 -0.20233101 0.57232201)
(0.27385899 -0.429241 0.57232201)
(1.08534 0.429241 0.57232201)
(1.11901 0.429241 0.57232201)
(0.34138 -0.429241 0.57232201)
(0.37433401 -0.429241 0.57232201)
(-0.113503 0.261246 0.57232201)
(-0.113503 0.29491201 0.57232201)
(0.37428299 0.429241 0.57232201)
(4.2262101 -0.429241 0.57232201)
(3.03741 -0.429241 0.57232201)
(5.1197901 -0.428945 0.57232201)
(5.1413498 -0.42844701 0.57232201)
(5.1642098 -0.42781201 0.57232201)
(0.92905003 -0.429241 0.57232201)
(0.95909202 -0.429241 0.57232201)
(0.70298702 -0.429241 0.57232201)
(1.7445199 -0.429241 0.57232201)
(0.033362001 -0.429241 0.57232201)
(0.88334399 0.429241 0.57232201)
(0.98434198 0.429241 0.57232201)
(1.5566601 0.429241 0.57232201)
(1.59033 0.429241 0.57232201)
(2.4319799 0.429241 0.57232201)
(2.4656501 0.429241 0.57232201)
(3.0832 0.429241 0.57232201)
(4.3471198 -0.429241 0.57232201)
(4.31669 -0.429241 0.57232201)
(5.4394202 0.40508601 0.57232201)
(5.4073 0.409417 0.57232201)
(4.4386601 -0.429241 0.57232201)
(4.4995599 -0.429241 0.57232201)
(4.4687099 -0.429241 0.57232201)
(4.53163 -0.429241 0.57232201)
(4.5985699 -0.429241 0.57232201)
(4.5649099 -0.429241 0.57232201)
(4.6322398 -0.429241 0.57232201)
(5.0787001 -0.429241 0.57232201)
(5.0989499 -0.429241 0.57232201)
(3.24951 -0.429241 0.57232201)
(3.2170401 -0.429241 0.57232201)
(-0.113503 -0.2915 0.276371)
(-0.113503 -0.26921999 0.27269)
(5.0577402 -0.429241 0.57232201)
(5.0355201 -0.429241 0.57232201)
(2.97681 0.429241 0.57232201)
(1.96066 0.429241 0.57232201)
(1.725 0.429241 0.57232201)
(2.49931 0.429241 0.57232201)
(1.79233 0.429241 0.57232201)
(1.75866 0.429241 0.57232201)
(1.82599 0.429241 0.57232201)
(2.3520899 -0.429241 0.57232201)
(4.8719802 -0.429241 0.57232201)
(4.93326 0.429241 0.57232201)
(6.0483198 0 0.058411699)
(6.0516701 0 0.0599926)
(4.6659098 -0.429241 0.57232201)
(4.7000299 -0.429241 0.57232201)
(-0.113503 -0.193085 0.26494801)
(-0.113503 -0.165059 0.26336399)
(3.3866 0.429241 0.57232201)
(3.42026 0.429241 0.57232201)
(3.6222601 0.429241 0.57232201)
(3.65593 0.429241 0.57232201)
(3.68959 0.429241 0.57232201)
(3.25193 0.429241 0.57232201)
(3.2855999 0.429241 0.57232201)
(-0.113503 0.36300901 0.57232201)
(2.4446399 -0.429241 0.57232201)
(2.4740601 -0.429241 0.57232201)
(2.5046501 -0.429241 0.57232201)
(-0.113503 -0.322303 0.57232201)
(0.307724 -0.429241 0.57232201)
(-0.113503 0.17715 0.26399699)
(4.3629098 0.429241 0.57232201)
(4.3292499 0.429241 0.57232201)
(1.99432 0.429241 0.57232201)
(2.80779 0.429241 0.57232201)
(2.60221 0.429241 0.57232201)
(2.63819 0.429241 0.57232201)
(2.7068 0.429241 0.57232201)
(2.7404599 0.429241 0.57232201)
(1.28734 0.429241 0.57232201)
(1.321 0.429241 0.57232201)
(1.11859 -0.429241 0.57232201)
(4.1609201 0.429241 0.57232201)
(4.1272502 0.429241 0.57232201)
(4.1945801 0.429241 0.57232201)
(0.307724 0.429241 0.57232201)
(-0.113503 0.328578 0.57232201)
(1.523 0.429241 0.57232201)
(0.34167299 0.429241 0.57232201)
(3.2182701 0.429241 0.57232201)
(-0.113503 0.247908 0.269833)
(-0.113503 0.226013 0.267515)
(3.2808001 -0.429241 0.57232201)
(4.2871599 -0.429241 0.57232201)
(4.2571201 -0.429241 0.57232201)
(2.8366599 -0.429241 0.57232201)
(0.98914802 -0.429241 0.57232201)
(1.24164 -0.429241 0.57232201)
(1.46552 -0.429241 0.57232201)
(2.3225701 -0.429241 0.57232201)
(2.29252 -0.429241 0.57232201)
(-0.113503 -0.230333 0.57232201)
(-0.113503 -0.0880007 0.57232201)
(1.25367 0.429241 0.57232201)
(3.1846001 0.429241 0.57232201)
(2.7741301 0.429241 0.57232201)
(3.1833601 -0.429241 0.57232201)
(2.9087901 0.429241 0.57232201)
(1.22 0.429241 0.57232201)
(2.56703 0.429241 0.57232201)
(1.05167 0.429241 0.57232201)
(-0.113503 -0.21991999 0.26696101)
(-0.113503 0.429241 0.49773201)
(-0.113503 0.429241 0.47490799)
(2.1626501 -0.429241 0.57232201)
(2.1289899 -0.429241 0.57232201)
(-0.113503 -0.356388 0.57232201)
(5.9879899 0 0.034223501)
(5.99125 0 0.0353323)
(1.01801 0.429241 0.57232201)
(2.39832 0.429241 0.57232201)
(5.75805 0.34975299 0.57232201)
(5.75103 0.35215801 0.57232201)
(3.7569201 0.429241 0.57232201)
(3.79059 0.429241 0.57232201)
(3.8579199 0.429241 0.57232201)
(3.8915901 0.429241 0.57232201)
(3.95892 0.429241 0.57232201)
(3.99259 0.429241 0.57232201)
(4.0599198 0.429241 0.57232201)
(4.0935798 0.429241 0.57232201)
(4.26191 0.429241 0.57232201)
(4.2955799 0.429241 0.57232201)
(4.3965802 0.429241 0.57232201)
(4.4975801 0.429241 0.57232201)
(4.5649099 0.429241 0.57232201)
(4.5985699 0.429241 0.57232201)
(5.4695301 0.40060401 0.57232201)
(5.4975901 0.396072 0.57232201)
(2.0636401 -0.429241 0.57232201)
(0.069450803 -0.429241 0.57232201)
(0.28335199 0 0.0283638)
(0.28751901 0 0.0270929)
(-0.113503 -0.245309 0.26952499)
(-0.113503 -0.0357977 0.25854)
(4.9614401 0.429241 0.57232201)
(1.15267 0.429241 0.57232201)
(1.18634 0.429241 0.57232201)
(-0.113503 0.202482 0.26558599)
(-0.113503 0.22758 0.57232201)
(4.6659098 0.429241 0.57232201)
(4.7000299 0.429241 0.57232201)
(2.9424601 0.429241 0.57232201)
(0.74868 0.429241 0.57232201)
(0.78234601 0.429241 0.57232201)
(0.81601202 0.429241 0.57232201)
(0.84967798 0.429241 0.57232201)
(4.8067598 0.429241 0.57232201)
(3.4876001 0.429241 0.57232201)
(3.52126 0.429241 0.57232201)
(3.4539299 0.429241 0.57232201)
(0.311818 0 0.0203935)
(0.316149 0 0.0193073)
(0.51206797 -0.429241 0.57232201)
(5.8038802 -0.33266699 0.57232201)
(5.8077402 -0.33109999 0.57232201)
(2.67308 0.429241 0.57232201)
(-0.113503 0.26812601 0.27252999)
(-0.113503 0.286632 0.27549899)
(2.8057599 -0.429241 0.57232201)
(1.85966 0.429241 0.57232201)
(2.77371 -0.429241 0.57232201)
(4.98806 0.429241 0.57232201)
(0.27909601 0 0.0296744)
(0.27478999 0 0.0310406)
(6.1619902 -0.0066700098 0.57232201)
(6.1616001 -0.0138845 0.57232201)
(5.5478401 0.38737601 0.57232201)
(5.57021 0.38366601 0.57232201)
(6.1617398 0.0118932 0.57232201)
(1.87649 -0.429241 0.57232201)
(-0.113503 0.429241 0.45454299)
(5.1201401 0.42893901 0.57232201)
(0.86609298 -0.429241 0.57232201)
(0.89814699 -0.429241 0.57232201)
(0.83284497 -0.429241 0.57232201)
(3.7232599 0.429241 0.57232201)
(0.614016 0.429241 0.57232201)
(1.4893301 0.429241 0.57232201)
(6.1224298 -0.114897 0.57232201)
(3.82426 0.429241 0.57232201)
(3.9252501 0.429241 0.57232201)
(4.22825 0.429241 0.57232201)
(0.220642 0 0.050790701)
(1.43529 -0.429241 0.57232201)
(-0.113503 -0.31188199 0.28034899)
(5.97332 0.243799 0.57232201)
(5.9857798 0.23588599 0.57232201)
(0.79917902 -0.429241 0.57232201)
(5.9977198 0.228117 0.57232201)
(5.0584798 0.429241 0.57232201)
(6.0088801 0.220689 0.57232201)
(5.7990899 0.33458099 0.57232201)
(5.8030801 0.33299199 0.57232201)
(6.03687 0.200883 0.57232201)
(6.02842 0.20707799 0.57232201)
(1.90974 -0.429241 0.57232201)
(5.6904602 -0.366254 0.57232201)
(5.6289601 0.37514701 0.57232201)
(5.6460099 0.372679 0.57232201)
(5.6904302 0.36625701 0.57232201)
(-0.113503 -0.33084401 0.28485599)
(-0.113503 -0.34788099 0.290627)
(-0.113503 -0.398597 0.32505199)
(-0.113503 -0.40723601 0.33543301)
(6.0588999 -0.18364801 0.57232201)
(6.0653701 -0.178054 0.57232201)
(-0.113503 -0.429241 0.45181599)
(-0.113503 -0.429241 0.47323999)
(6.15273 -0.056848101 0.57232201)
(6.0720801 -0.172195 0.57232201)
(6.0788698 -0.16579799 0.57232201)
(4.0262499 0.429241 0.57232201)
(-0.113503 -0.376546 0.30593601)
(-0.113503 -0.36312801 0.29772401)
(-0.113503 -0.38843501 0.31520501)
(-0.113503 0.30312899 0.278568)
(2.1963201 -0.429241 0.57232201)
(2.5364299 -0.429241 0.57232201)
(2.09571 -0.429241 0.57232201)
(2.2295599 -0.429241 0.57232201)
(5.9250102 0.27318099 0.57232201)
(5.9360199 0.26669499 0.57232201)
(0.73382998 -0.429241 0.57232201)
(5.9235301 0 0.0165237)
(5.9277401 0 0.017456301)
(0.61160499 -0.429241 0.57232201)
(-0.113503 0.318221 0.28171)
(-0.113503 0.33168399 0.285099)
(1.01999 -0.429241 0.57232201)
(2.26161 -0.429241 0.57232201)
(6.07939 0 0.074348502)
(0.765903 -0.429241 0.57232201)
(5.0796099 0.429241 0.57232201)
(6.1007299 0.142866 0.57232201)
(6.1083798 0.133903 0.57232201)
(6.1553202 -0.048232298 0.57232201)
(5.7254901 0.36065 0.57232201)
(6.1156502 0.124269 0.57232201)
(6.1223602 0.114989 0.57232201)
(-0.113503 -0.429196 0.39790401)
(-0.113503 -0.429241 0.41425201)
(-0.113503 0.427459 0.38039899)
(-0.113503 0.42497101 0.37006301)
(6.1284099 -0.105845 0.57232201)
(-0.113503 -0.427986 0.38307899)
(6.1427999 -0.080536596 0.57232201)
(6.1284199 0.105836 0.57232201)
(6.13379 0.097201698 0.57232201)
(4.53124 0.429241 0.57232201)
(6.1571698 0.041398201 0.57232201)
(6.1549702 0.049420699 0.57232201)
(4.6322398 0.429241 0.57232201)
(5.88234 -0.29668799 0.57232201)
(5.8891602 -0.293143 0.57232201)
(5.9589 0 0.025279799)
(5.9628401 0 0.026397301)
(6.0190601 -0.21374699 0.57232201)
(6.0283198 -0.207149 0.57232201)
(2.0279901 0.429241 0.57232201)
(2.0616601 0.429241 0.57232201)
(5.8761101 -0.29991001 0.57232201)
(2.1626501 0.429241 0.57232201)
(2.1963201 0.429241 0.57232201)
(2.22999 0.429241 0.57232201)
(2.53298 0.429241 0.57232201)
(5.8566899 -0.309466 0.57232201)
(5.8527999 -0.31130299 0.57232201)
(5.8527198 0.31134701 0.57232201)
(5.8566198 0.30949801 0.57232201)
(0.71501398 0.429241 0.57232201)
(6.1589599 0.033532199 0.57232201)
(5.8706102 -0.302659 0.57232201)
(5.8046398 0 0.000951408)
(5.8090301 0 0.00117867)
(5.7704 0.34539801 0.57232201)
(5.7644801 0.34750399 0.57232201)
(6.0828199 0 0.076334298)
(0.26660299 0 0.033732999)
(0.27061099 0 0.0324012)
(6.11619 0 0.10005)
(6.11343 0 0.097736403)
(0.355932 0 0.0107606)
(0.35148299 0 0.0115825)
(5.75811 -0.349731 0.57232201)
(5.8268299 0.323057 0.57232201)
(5.8301902 0.32158101 0.57232201)
(0.249164 0 0.125038)
(0.247246 0 0.122836)
(5.7878799 0 0.000303896)
(5.79217 0 0.000436998)
(5.9833598 0 0.290842)
(5.98174 0 0.28755599)
(0.320335 0 0.0182896)
(5.8761802 0 0.00795539)
(5.9107399 0 0.0138809)
(5.9148598 0 0.0147062)
(5.9191198 0 0.0155843)
(6.1048598 0 0.090912499)
(6.1017299 0 0.088600203)
(6.1078501 0 0.093210198)
(0.26276299 0 0.035034899)
(5.7527499 0 0)
(5.7572398 0 0)
(6.0127501 0 0.0431972)
(6.0088801 0 0.041709598)
(6.0549598 0 0.061578002)
(5.8273201 -0.32284299 0.57232201)
(5.8334899 0.32012999 0.57232201)
(5.82412 -0.32422701 0.57232201)
(5.9777699 0.0017636101 0.24413399)
(5.9802799 0.00165598 0.242006)
(5.9742699 -0.00162195 0.26091)
(5.9735799 -0.00182264 0.26416701)
(5.8209901 -0.325569 0.57232201)
(0.25899899 0.00145691 0.151847)
(0.25891799 0.00146998 0.155652)
(5.8103299 0.330035 0.57232201)
(5.8067799 0.331489 0.57232201)
(5.0996199 0.429241 0.57232201)
(6.16079 -0.021801401 0.57232201)
(6.1602402 0.025992701 0.57232201)
(6.0124602 0.0032643201 0.33440599)
(6.0095701 0.0032011101 0.330843)
(6.0720701 0.172223 0.57232201)
(6.0788798 0.16576999 0.57232201)
(6.16116 0.018806299 0.57232201)
(-0.113503 -0.429241 0.432298)
(0.224382 0 0.049296599)
(0.22812299 0 0.047803201)
(5.84373 0 0.00391758)
(5.7430801 -0.35484299 0.57232201)
(5.7510099 -0.35216799 0.57232201)
(0.38869399 0 0.0057018599)
(0.38287699 0 0.0064620902)
(0.36064401 0 0.0099221803)
(5.6619501 0.37037301 0.57232201)
(5.7948799 0.336236 0.57232201)
(0.36576399 0 0.0090426505)
(5.8491502 -0.31301299 0.57232201)
(5.8458099 -0.31456 0.57232201)
(0.29957399 0 0.023647999)
(5.8556499 0 0.0052410401)
(5.8597498 0 0.0057299999)
(-0.113503 -0.414491 0.34619799)
(0.29558399 0 0.0247491)
(5.8639798 0 0.0062773)
(5.8426299 -0.316021 0.57232201)
(5.9866099 0 0.23966201)
(5.9906602 0 0.23873401)
(5.76157 0 0)
(5.76577 0 0)
(5.8426199 0.316026 0.57232201)
(5.8396001 0.317393 0.57232201)
(5.7789402 0 0.00010591)
(5.7834802 0 0.00019103401)
(5.7758899 0.34340701 0.57232201)
(0.29155099 0 0.025921)
(5.8457499 0.31459001 0.57232201)
(5.8799701 0 0.0085285204)
(5.8838601 0 0.0091253398)
(6.1294699 0 0.112898)
(6.0448599 0 0.056806002)
(6.04145 0 0.055245399)
(6.1394801 0 0.124548)
(6.1371899 0 0.121718)
(5.7858701 0.33970001 0.57232201)
(5.7904801 0.33794099 0.57232201)
(5.8878598 0 0.0097678397)
(5.8917298 0 0.0104115)
(6.0985298 0 0.086349398)
(6.1214199 0 0.104814)
(5.94701 0 0.022089399)
(5.95084 0 0.023088999)
(6.0381098 0 0.0537614)
(6.1565399 0 0.20646299)
(6.1582899 0 0.202738)
(6.1596799 0 0.19896901)
(0.18213101 0 0.21270899)
(0.18609101 0 0.211567)
(6.1347899 0 0.118862)
(6.1322098 0 0.1159)
(6.0068898 0 0.325353)
(6.0043302 0 0.32188401)
(5.8352399 0 0.0030977901)
(5.83957 0 0.0035024299)
(6.1455402 0 0.132726)
(6.14746 0 0.13564201)
(6.14361 0 0.129976)
(5.9548101 0 0.024153)
(5.82339 0.32453999 0.57232201)
(5.8200798 0.32595801 0.57232201)
(6.1607299 0 0.195227)
(6.1619902 0 0.17928)
(6.1620898 0 0.18320499)
(6.1619401 0 0.187213)
(5.8267102 0 0.0023716399)
(5.8309202 0 0.00271845)
(5.8224301 0 0.0020465199)
(6.0167499 0 0.044767398)
(5.77002 0 1.13504e-05)
(6.06848 0 0.068383902)
(0.20522299 0 0.10245)
(0.208808 0 0.103304)
(5.7963099 0 0.00057829299)
(5.8004198 0 0.00075590401)
(5.93186 0 0.0183904)
(6.1577802 0 0.156813)
(6.1563702 0 0.152972)
(5.9994502 0 0.31527701)
(5.99718 0 0.31220201)
(5.9767799 0 0.25016999)
(5.9779902 0 0.24703801)
(0.34333101 0 0.0131886)
(0.34731901 0 0.0123906)
(5.96666 0 0.027505601)
(0.20149601 0 0.10173)
(0.19766 0 0.101028)
(5.81358 0 0.00144673)
(5.81809 0 0.00173801)
(6.0067701 0.00337215 0.32783601)
(5.7743902 0 4.4498702e-05)
(6.1599002 0 0.16425499)
(6.1589398 0 0.16058201)
(6.1606798 0 0.167881)
(6.1188102 0 0.102432)
(0.324384 0 0.0173306)
(0.22002199 0 0.198468)
(0.21612599 0 0.20037501)
(6.0120702 0 0.33236101)
(6.0095201 0 0.32890001)
(5.9358001 0 0.0193127)
(5.9703498 0 0.0285988)
(5.9945698 0 0.0364835)
(5.7810402 0.34151101 0.57232201)
(-0.113503 0.41371799 0.34483099)
(-0.113503 0.40902299 0.33775401)
(6.06498 0 0.066567801)
(5.99295 0 0.30638599)
(5.9950099 0 0.30925801)
(5.98033 0 0.28431401)
(5.8365898 0.31874999 0.57232201)
(5.9766598 0 0.27171999)
(0.236095 0 0.18841299)
(0.23336799 0 0.190437)
(0.25891799 -0.00146998 0.155652)
(0.25899899 -0.00145691 0.151847)
(0.247704 0 0.176778)
(0.24979199 0 0.17378201)
(0.245518 0 0.179517)
(0.232263 0 0.111695)
(0.229375 0 0.110303)
(5.9791002 0 0.28106201)
(0.240145 0 0.116572)
(0.237524 0 0.114784)
(0.25966799 -0.00152301 0.148155)
(0.25966799 0.001523 0.148155)
(5.8179202 -0.32686999 0.57232201)
(0.23860601 0 0.186373)
(0.24095599 0 0.18428101)
(0.23490299 0 0.113198)
(5.9739099 0.00173447 0.26396501)
(5.9742699 0.00162053 0.260901)
(6.0861101 0 0.078295201)
(6.0892501 0 0.080232598)
(5.8136301 0.32867101 0.57232201)
(6.0190401 0.21375901 0.57232201)
(5.9846001 0 0.033097401)
(5.6768498 -0.36822 0.57232201)
(5.67663 0.36825001 0.57232201)
(6.0369201 -0.200848 0.57232201)
(6.0447798 0.19493499 0.57232201)
(-0.113503 0.429241 0.43617499)
(-0.113503 0.429241 0.41982201)
(6.0588999 0.18364801 0.57232201)
(6.05199 0.189201 0.57232201)
(5.9148302 0.279057 0.57232201)
(5.9054999 0.28425699 0.57232201)
(5.9147601 -0.279091 0.57232201)
(6.10077 -0.14283299 0.57232201)
(6.1463299 0.073129497 0.57232201)
(6.1426301 0.080884904 0.57232201)
(6.0654001 0.178027 0.57232201)
(6.1524401 0.057677802 0.57232201)
(-0.113503 0.403992 0.33122101)
(6.0447302 -0.19497 0.57232201)
(6.0520401 -0.189164 0.57232201)
(6.086 -0.15882801 0.57232201)
(6.0859699 0.158878 0.57232201)
(5.88943 0.29299 0.57232201)
(5.8969202 0.28896701 0.57232201)
(-0.113503 0.37251401 0.303215)
(-0.113503 0.36402401 0.29820299)
(-0.113503 0.35447901 0.29344001)
(6.1385698 0.0888521 0.57232201)
(6.1338902 -0.097043797 0.57232201)
(6.13866 -0.0887082 0.57232201)
(5.9053001 -0.284372 0.57232201)
(-0.113503 0.38009301 0.308433)
(-0.113503 0.386942 0.31386599)
(5.8773799 0.299252 0.57232201)
(5.8729501 0.30149099 0.57232201)
(5.88275 0.29647601 0.57232201)
(6.0933299 0.15118299 0.57232201)
(6.1494098 0.065517403 0.57232201)
(5.86095 -0.30740601 0.57232201)
(5.86553 -0.30519199 0.57232201)
(5.86901 0.30345199 0.57232201)
(5.8649402 0.305482 0.57232201)
(5.8606901 0.307529 0.57232201)
(-0.113503 0.429241 0.40498701)
(-0.113503 0.42897201 0.39198801)
(-0.113503 -0.424862 0.36967301)
(5.8491302 0.31302601 0.57232201)
(0.371178 0 0.0081835501)
(5.8396502 -0.31736901 0.57232201)
(5.9851599 0 0.29418999)
(5.9870801 0 0.29745901)
(0.193691 0 0.100403)
(0.189799 0 0.099870197)
(0.20861299 0 0.203703)
(0.21232601 0 0.202112)
(5.8168302 0.32732901 0.57232201)
(0.21621101 0 0.105312)
(0.219807 0 0.106403)
(5.83674 -0.31868199 0.57232201)
(5.98002 0 0.24410699)
(-0.113503 -0.42027801 0.35737801)
(6.0932899 -0.151226 0.57232201)
(5.98036 -0.00169552 0.241772)
(5.9780898 -0.0015976001 0.244698)
(-0.113503 -0.429241 0.496474)
(0.328302 0 0.0164265)
(0.33213499 0 0.0155675)
(0.335839 0 0.0147582)
(0.339513 0 0.0139772)
(0.186028 0 0.099413298)
(0.182394 0 0.099032603)
(0.212532 0 0.104195)
(0.24507999 0 0.120667)
(0.226399 0 0.108926)
(0.223153 0 0.107672)
(0.24271999 0 0.118585)
(0.25362799 0 0.132037)
(0.25233701 0 0.12962499)
(0.256255 0 0.13934401)
(0.25556499 0 0.136869)
(0.25470299 0 0.13446499)
(0.25086701 0 0.127314)
(0.255427 -0.0014209 0.131658)
(0.254264 -0.0014965 0.128712)
(-0.113503 0 0.25754499)
(5.8968902 -0.288982 0.57232201)
(0.197825 0 0.207793)
(0.201434 0 0.20650101)
(0.19404601 0 0.20907301)
(0.19011199 0 0.210338)
(0.204992 0 0.205152)
(0.227185 0 0.194473)
(0.230405 0 0.19245499)
(0.223729 0 0.196485)
(0.25697801 0 0.153644)
(0.257218 0 0.15053301)
(0.243267 0 0.182015)
(0.25472 0 0.16364899)
(0.25574401 0 0.160255)
(0.25727099 0 0.147535)
(0.257121 0 0.144673)
(0.256782 0 0.14195099)
(0.25649101 0 0.156903)
(6.1107302 0 0.095471598)
(5.7481999 0 0)
(5.9067702 0 0.0131104)
(6.0051398 0 0.0402987)
(6.0615501 0 0.064825103)
(6.0954099 0 0.084227398)
(6.1416001 0 0.12726501)
(6.1614699 0 0.19131)
(5.9890299 0 0.30056301)
(5.8955202 0 0.0110606)
(5.89921 0 0.0117111)
(5.9029498 0 0.0123921)
(5.93961 0 0.0202299)
(5.9432802 0 0.0211401)
(5.9739099 0 0.0296902)
(5.9979901 0 0.0376909)
(6.0015202 0 0.038966902)
(5.97753 0 0.030816499)
(5.9811001 0 0.031958099)
(6.0582299 0 0.063168503)
(6.09232 0 0.082187101)
(6.1493301 0 0.138695)
(6.1511998 0 0.14197101)
(6.1547499 0 0.149102)
(6.1529999 0 0.14541)
(6.1612701 0 0.171527)
(6.1617198 0 0.17535099)
(5.9829402 0 0.24154)
(6.1545 0 0.210054)
(6.1522102 0 0.213357)
(5.9780698 0 0.277879)
(5.97681 -0.0017447399 0.279401)
(5.9760399 -0.00175386 0.27689901)
(5.9910002 0 0.30355)
(6.0104399 -0.00317997 0.33185801)
(6.0081902 -0.0031268301 0.32910401)
(6.0057602 -0.0028395299 0.325811)
(6.0018401 0 0.31851101)
(5.9759002 0 0.26569399)
(5.9762001 0 0.26876101)
(5.9757299 0 0.26252201)
(5.9757299 0 0.25935799)
(5.97614 0 0.253241)
(5.9758501 0 0.256264)
(5.6107402 0.377785 0.57232201)
(5.59127 0.38060901 0.57232201)
(5.5237198 0.391626 0.57232201)
(5.3738799 0.41344699 0.57232201)
(5.3390598 0.41715199 0.57232201)
(-0.113503 0.39313799 0.31947199)
(-0.113503 0.398754 0.325212)
(-0.113503 0.343757 0.28898901)
(-0.113503 0.421763 0.36081001)
(-0.113503 0.41797701 0.352456)
(0.254262 0.00149611 0.12871499)
(0.255555 0.00143386 0.131607)
(5.9760399 0.00175322 0.27689901)
(5.97681 0.00174488 0.279401)
(5.9738002 -0.00226698 0.27564001)
(5.9738102 0.0022651299 0.27565899)
)


// edges:

911
(
(0 3)
(4 5)
(6 0)
(7 8)
(9 10)
(10 11)
(7 12)
(13 14)
(1 15)
(16 17)
(18 19)
(20 21)
(22 23)
(24 22)
(25 26)
(27 28)
(29 30)
(31 18)
(32 33)
(34 35)
(36 37)
(38 39)
(40 41)
(42 41)
(43 44)
(45 46)
(47 48)
(49 50)
(51 52)
(53 54)
(55 56)
(57 44)
(14 57)
(58 59)
(60 61)
(62 63)
(64 65)
(66 67)
(68 69)
(70 59)
(71 72)
(67 73)
(74 75)
(76 77)
(78 79)
(80 81)
(64 82)
(83 84)
(85 86)
(87 88)
(85 89)
(90 91)
(92 93)
(94 95)
(96 90)
(97 98)
(99 100)
(101 102)
(103 104)
(105 102)
(106 107)
(108 109)
(110 111)
(112 113)
(114 115)
(107 114)
(116 117)
(118 119)
(61 120)
(121 122)
(115 121)
(122 123)
(124 125)
(126 108)
(127 128)
(129 124)
(130 131)
(132 133)
(131 134)
(135 129)
(135 136)
(137 110)
(138 139)
(140 141)
(142 143)
(68 144)
(145 0)
(146 145)
(147 148)
(149 150)
(151 152)
(153 154)
(155 48)
(156 157)
(158 159)
(160 161)
(162 140)
(163 9)
(164 165)
(166 167)
(168 169)
(170 171)
(172 173)
(173 174)
(174 175)
(176 177)
(178 179)
(179 172)
(180 181)
(181 178)
(182 183)
(184 185)
(186 187)
(188 189)
(190 1)
(191 192)
(192 193)
(194 58)
(195 63)
(196 98)
(197 198)
(199 16)
(200 25)
(49 56)
(201 202)
(203 204)
(205 206)
(15 207)
(208 209)
(210 211)
(212 213)
(212 214)
(215 209)
(215 214)
(216 217)
(218 219)
(220 221)
(222 220)
(223 224)
(224 222)