/*--------------------------------*- C++ -*----------------------------------*\
| =========                 |                                                 |
| \\      /  F ield         | OpenFOAM: The Open Source CFD Toolbox           |
|  \\    /   O peration     | Version:  v2206                                 |
|   \\  /    A nd           | Website:  www.openfoam.com                      |
|    \\/     M anipulation  |                                                 |
\*---------------------------------------------------------------------------*/
FoamFile
{
    version     2.0;
    format      ascii;
    class       dictionary;
    object      dynamicMeshDict;
}
// * * * * * * * * * * * * * * * * * * * * * * * * * * * * * * * * * * * * * //

dynamicFvMesh       dynamicOversetFvMesh;

solvers
{
    boat
    {
        motionSolverLibs    (librigidBodyMeshMotion);
        motionSolver         rigidBodyMotion;

        report              on;
        cellSet             cs;

        solver
        {
            type Newmark;
        }

        accelerationRelaxation 0.8;
        accelerationDamping    0.9;
        nIter   3;

        bodies
        {
            ship
            {
                type            rigidBody;
                parent          root;
                mass            825.46;

                centreOfMass    (0 0 0);
                inertia         (80 0 0 1842 0 1846);
                transform       (1 0 0 0 1 0 0 0 1)  (2.929541 0 0.2);
                joint
                {
                    type            composite;

                    joints
                    (
                        {
                            type Pz;
                        }
                        {
                            type Ry;
                        }
                    );
                }
                patches    (ship);
                innerDistance   100;
                outerDistance   200;
            }
        }
        restraints
        {
            translationDamper
            {
                type linearDamper;
                body ship;
                coeff 8596;
            }

            rotationDamper
            {
                type sphericalAngularDamper;
                body ship;
                coeff 11586;
            }
        }
    }
}
// * * * * * * * * * * * * * * * * * * * * * * * * * * * * * * * * * * * * * //
