/*--------------------------------*- C++ -*----------------------------------*\
| =========                 |                                                 |
| \\      /  F ield         | OpenFOAM: The Open Source CFD Toolbox           |
|  \\    /   O peration     | Version:  v2206                                 |
|   \\  /    A nd           | Website:  www.openfoam.com                      |
|    \\/     M anipulation  |                                                 |
\*---------------------------------------------------------------------------*/
FoamFile
{
    version     2.0;
    format      ascii;
    class       dictionary;
    object      blockMeshDict;
}
// * * * * * * * * * * * * * * * * * * * * * * * * * * * * * * * * * * * * * //

scale    1;

//Current background refinement box limits : min=(-2.5 -1.2 -0.6); max=(2.5 1.2 1);

xmin    -0.5;   ymin    -0.6875;    zmin    -0.25;   

xmax    6.5;    ymax    0.6875;     zmax    0.875;
          

vertices
(
    ($xmin $ymin $zmin)
    ($xmax $ymin $zmin)
    ($xmax $ymax $zmin)
    ($xmin $ymax $zmin)

    ($xmin $ymin $zmax)
    ($xmax $ymin $zmax)
    ($xmax $ymax $zmax)
    ($xmin $ymax $zmax)

);

blocks
(
    hex (0 1 2 3 4 5 6 7) ( 224 44 36 ) simpleGrading ( 1 1 1 )
);

edges
(
);

boundary
(
    oversetShip
    {
        type overset;
        faces
        (
            (0 4 7 3) // xmin
            (1 2 6 5) // xmax
            (0 1 5 4) // ymin
            (3 7 6 2) // ymax
            (0 3 2 1) // bottom
            (4 5 6 7) // top
        );
    }
);
// ************************************************************************* //
