/*--------------------------------*- C++ -*----------------------------------*\
| =========                 |                                                 |
| \\      /  F ield         | OpenFOAM: The Open Source CFD Toolbox           |
|  \\    /   O peration     | Version:  v2206                                 |
|   \\  /    A nd           | Website:  www.openfoam.com                      |
|    \\/     M anipulation  |                                                 |
\*---------------------------------------------------------------------------*/
FoamFile
{
    version     2.0;
    format      ascii;
    class       dictionary;
    object      snappyHexMeshDict;
}
// * * * * * * * * * * * * * * * * * * * * * * * * * * * * * * * * * * * * * //

castellatedMesh true;
snap            false;
addLayers       false;

geometry
{
    DTCShip.stl
    {
        type triSurfaceMesh;
        name ship;

        patchInfo
        {
            type wall;
        }
    }
}

castellatedMeshControls
{
    maxLocalCells 100000;
    maxGlobalCells 2000000;
    minRefinementCells 0;
    nCellsBetweenLevels 4;
    resolveFeatureAngle 15;

    features
    (
         {
             file "DTCShip.eMesh";
             level 2;
         }
    );

    refinementSurfaces
    {
        ship
        {
            level (2 2); 
        }
    }

    refinementRegions
    {
        ship 
        {
            mode distance;
            //levels ((0.1 1));
	    levels ((0.06 2) (0.12 1)); 
	    //levels ((0.05 3) (0.1 2) (0.2 1)); 
        }
	
    }


    // Mesh selection
    // ~~~~~~~~~~~~~~
    locationInMesh (-0.1 -0.1 0);
    allowFreeStandingZoneFaces true;
}

snapControls
{
    tolerance       2;
    implicitFeatureSnap false;
    explicitFeatureSnap true;
    multiRegionFeatureSnap true;
    detectNearSurfacesSnap true;
    nSmoothPatch    3;
    nSolveIter      50;
    nRelaxIter      5;
    nFeatureSnapIter 10;
    nSmoothInternal 3;
    nFaceSplitInterval 5;
}

addLayersControls
{
    relativeSizes true;
    layers
    {
        ship
        {
            nSurfaceLayers 6;

        }
    }

    expansionRatio 1.2;
    //finalLayerThickness 0.7 ;
    firstLayerThickness   0.06 ;
    minThickness 0.001;
    nGrow 0;

    // Advanced settings
    featureAngle 180;
    mergePatchFacesAngle 180;    // featureAngle
    layerTerminationAngle 90;   // 0.5*featureAngle
    slipFeatureAngle 90;        // 0.5*featureAngle
    nRelaxIter 5;
    nSmoothSurfaceNormals 10;
    nSmoothNormals 3;
    nSmoothThickness 10;
    maxFaceThicknessRatio 0.2;
    maxThicknessToMedialRatio 0.3;
    minMedialAxisAngle 90;
    nBufferCellsNoExtrude 0;
    nLayerIter 50;
    nRelaxedIter 10;
}

meshQualityControls
{
    #include "meshQualityDict"
}


// Advanced

writeFlags
(
    scalarLevels    // write volScalarField with cellLevel for postprocessing
    layerSets       // write cellSets, faceSets of faces in layer
    layerFields     // write volScalarField for layer coverage
);

debug 0;

mergeTolerance 1E-6;


// ************************************************************************* //
