/*--------------------------------*- C++ -*----------------------------------*\
| =========                 |                                                 |
| \\      /  F ield         | OpenFOAM: The Open Source CFD Toolbox           |
|  \\    /   O peration     | Version:  v2206                                 |
|   \\  /    A nd           | Website:  www.openfoam.com                      |
|    \\/     M anipulation  |                                                 |
\*---------------------------------------------------------------------------*/
FoamFile
{
    version     2.0;
    format      ascii;
    class       dictionary;
    object      topoSetDict;
}
// * * * * * * * * * * * * * * * * * * * * * * * * * * * * * * * * * * * * * //

actions
(

    {
        name    aft;
        type    faceSet;
        action  new;
        source boxToFace;
        box  (5.25 -0.5 -0.1) (6.25 0.5 0.7);
    }

    {
        name    bow;
        type    faceSet;
        action  new;
        source boxToFace;
        box  (-0.25 -0.5 -0.1) (0.5 0.5 0.7);
     }

 
);

// ************************************************************************* //
