/*--------------------------------*- C++ -*----------------------------------*\
  =========                 |
  \\      /  F ield         | OpenFOAM: The Open Source CFD Toolbox
   \\    /   O peration     | Website:  https://openfoam.org
    \\  /    A nd           | Version:  12
     \\/     M anipulation  |
\*---------------------------------------------------------------------------*/
FoamFile
{
    format      ascii;
    class       dictionary;
    location    "system";
    object      blockMeshDict;
}

// * * * * * * * * * * * * * * * * * * * * * * * * * * * * * * * * * * * * * //

scale 1;

xMin -20;
xMax 14;
yMin -20;
yMax 20;
zMin -8.244;
zMax 3.756;

vertices
(
    ($xMin $yMin $zMin) // vertex 0
    ($xMax $yMin $zMin) // vertex 1
    ($xMax $yMax $zMin) // vertex 2
    ($xMin $yMax $zMin) // vertex 3

    ($xMin $yMin $zMax) 
    ($xMax $yMin $zMax) 
    ($xMax $yMax $zMax) 
    ($xMin $yMax $zMax) 
);

blocks
(
    hex (0 1 2 3 4 5 6 7) 
    (68 80 24) 
    simpleGrading (1 1 1)
);

boundary
(
    inlet
    {
        type patch;
        faces
        (
            (1 5 6 2)
        );
    }
    outlet
    {
        type patch;
        faces
        (
            (0 4 7 3)
        );
    }
    ground
    {
        type symmetry;
        faces
        (
            (0 1 2 3) 
        );
    }
    atmosphere
    {
        type patch;
        faces
        (
            (4 5 6 7) 
        );
    }
    sideleft
    {
        type patch;
        faces
        (
            (0 1 5 4)
        );
    }
    sideright
    {
        type patch;
        faces
        (
            (3 2 6 7) 
        );
    }
);


// ************************************************************************* //
