/*--------------------------------*- C++ -*----------------------------------*\
| =========                 |                                                 |
| \\      /  F ield         | OpenFOAM: The Open Source CFD Toolbox           |
|  \\    /   O peration     | Version:  v2206                                 |
|   \\  /    A nd           | Website:  www.openfoam.com                      |
|    \\/     M anipulation  |                                                 |
\*---------------------------------------------------------------------------*/
FoamFile
{
    version     2.0;
    format      ascii;
    class       dictionary;
    object      controlDict;
}
// * * * * * * * * * * * * * * * * * * * * * * * * * * * * * * * * * * * * * //

libs            (overset rigidBodyDynamics);

application     overInterDyMFoam;

startFrom       latestTime;

startTime       0;

stopAt          endTime;

endTime         100;

deltaT          5e-5;

writeControl    adjustableRunTime;

writeInterval   2.5;

purgeWrite      0;

writeFormat     binary;

writePrecision  8;

writeCompression off;

timeFormat      general;

timePrecision   8;

runTimeModifiable yes;

adjustTimeStep  yes;

maxAlphaCo      1;

maxCo           5;

maxDeltaT       1;

functions
{

    forces
    {
        type            forces;
        libs            ("libforces.so");
        patches         (ship);
        rhoInf          998.8;
        log             on;
        writeControl    timeStep;
        writeInterval   5;
        CofR            (2.929541 0 0.2);
    }

    yPlus
    {
        type            yPlus;
        libs            (fieldFunctionObjects);
        patches         (ship);
        writeControl    adjustableRunTime;
        writeInterval   2.5;
    }
}

// ************************************************************************* //
