/*--------------------------------*- C++ -*----------------------------------*\
| =========                 |                                                 |
| \\      /  F ield         | OpenFOAM: The Open Source CFD Toolbox           |
|  \\    /   O peration     | Version:  v2206                                 |
|   \\  /    A nd           | Website:  www.openfoam.com                      |
|    \\/     M anipulation  |                                                 |
\*---------------------------------------------------------------------------*/
FoamFile
{
    version     2.0;
    format      ascii;
    class       dictionary;
    object      setFieldsDict;
}
// * * * * * * * * * * * * * * * * * * * * * * * * * * * * * * * * * * * * * //

defaultFieldValues
(
    volScalarFieldValue zoneID 123
    volScalarFieldValue alpha.water 0
);

regions
(

    boxToCell
    {
        box (-1000 -1000 -1000) (1000 1000 0.244);

        fieldValues
        (
            volScalarFieldValue alpha.water 1
        );
    }

    boxToFace
    {
        box (-1000 -1000 -1000) (1000 1000 0.244);

        fieldValues
        (
            volScalarFieldValue alpha.water 1
        );
    }


    cellToCell
    {
        set cb;

        fieldValues
        (
            volScalarFieldValue zoneID 0
        );
    }

    cellToCell
    {
        set cs;

        fieldValues
        (
            volScalarFieldValue zoneID 1
        );
    }

);


// ************************************************************************* //
