/*--------------------------------*- C++ -*----------------------------------*\
| =========                 |                                                 |
| \\      /  F ield         | OpenFOAM: The Open Source CFD Toolbox           |
|  \\    /   O peration     | Version:  v2206                                 |
|   \\  /    A nd           | Website:  www.openfoam.com                      |
|    \\/     M anipulation  |                                                 |
\*---------------------------------------------------------------------------*/
FoamFile
{
    version     2.0;
    format      ascii;
    class       dictionary;
    object      topoSetDict;
}
// * * * * * * * * * * * * * * * * * * * * * * * * * * * * * * * * * * * * * //

actions
(
    {
        name    cb; // background, zoneID 0
        type    cellSet;
        action  new;
        source  regionToCell;

        insidePoints ((-8 -0.05 0.0));
    }

    {
        name    cs;
        type    cellSet;
        action  new;
        source  cellToCell; 

        set     cb;
    }

    {
        name    cs;
        type    cellSet;
        action  invert; 
    }

);


// ************************************************************************* //
